
&jules_surface
beta1= 0.83,,
beta2= 0.93,,
fwe_c3= 0.5,,
fwe_c4= 2.0e4,,
hleaf= 5.7e4,,
hwood= 1.1e4,,
iscrntdiag= 0,,
l_aggregate= .false.,,
l_anthrop_heat_src= .false.,,
l_elev_land_ice= .false.,,
l_elev_lw_down= .false.,,
l_epot_corr= .false.,,
l_land_ice_imp= .false.,,
l_point_data= .true.,,
/


